Version 4
SHEET 1 880 680
WIRE 144 -560 112 -560
WIRE 240 -560 224 -560
WIRE -16 -448 -64 -448
WIRE 112 -448 112 -560
WIRE 112 -448 48 -448
WIRE 144 -448 112 -448
WIRE 240 -448 240 -560
WIRE 240 -448 208 -448
WIRE 272 -448 240 -448
WIRE 384 -448 352 -448
WIRE 416 -448 384 -448
WIRE 560 -448 496 -448
WIRE 560 -400 560 -448
WIRE 384 -288 384 -448
WIRE 384 -288 144 -288
WIRE -224 -272 -288 -272
WIRE -176 -272 -224 -272
WIRE -64 -272 -64 -448
WIRE -64 -272 -96 -272
WIRE 80 -272 -64 -272
WIRE 160 -256 144 -256
WIRE 256 -256 240 -256
WIRE 288 -256 256 -256
WIRE 416 -256 368 -256
WIRE -224 -240 -224 -272
WIRE 256 -224 256 -256
WIRE 112 -192 112 -240
WIRE -224 -160 -224 -176
WIRE -32 -64 -160 -64
WIRE 128 -64 48 -64
WIRE 160 -64 128 -64
WIRE 288 -64 288 -256
WIRE 288 -64 240 -64
WIRE -288 -32 -288 -272
WIRE 128 -16 128 -64
WIRE -880 16 -912 16
WIRE -736 16 -800 16
WIRE -608 16 -656 16
WIRE -464 16 -608 16
WIRE -352 16 -464 16
WIRE -128 32 -224 32
WIRE -608 48 -608 16
WIRE -352 48 -368 48
WIRE -352 80 -384 80
WIRE -384 96 -384 80
WIRE -384 96 -400 96
WIRE 128 96 128 64
WIRE -384 112 -384 96
WIRE -352 112 -384 112
WIRE -464 128 -464 16
WIRE -464 128 -528 128
WIRE -464 144 -464 128
WIRE -608 160 -608 112
WIRE 224 160 -64 160
WIRE -320 176 -320 160
WIRE -256 176 -256 160
WIRE -256 176 -320 176
WIRE 224 176 224 160
WIRE -368 192 -368 48
WIRE -368 192 -416 192
WIRE -288 192 -368 192
WIRE -160 192 -160 -64
WIRE -160 192 -288 192
WIRE -368 208 -368 192
WIRE -1232 224 -1232 176
WIRE -1120 224 -1120 176
WIRE -320 224 -320 176
WIRE -288 240 -288 192
WIRE -240 240 -288 240
WIRE -128 240 -128 32
WIRE -128 240 -176 240
WIRE -64 240 -64 160
WIRE -64 240 -128 240
WIRE -528 256 -528 128
WIRE -368 288 -368 272
WIRE 96 288 96 256
WIRE 224 288 224 256
WIRE 224 288 144 288
WIRE 336 288 224 288
WIRE -704 304 -736 304
WIRE -592 304 -624 304
WIRE -464 304 -464 208
WIRE -320 304 -464 304
WIRE -128 304 -128 240
WIRE -128 304 -256 304
WIRE 176 304 128 304
WIRE 224 304 224 288
WIRE 64 320 0 320
WIRE 336 320 336 288
WIRE -1232 336 -1232 304
WIRE -1120 336 -1120 304
WIRE 144 336 144 288
WIRE 144 336 128 336
WIRE -128 368 -128 304
WIRE -416 384 -416 192
WIRE -368 384 -416 384
WIRE -464 400 -464 304
WIRE 176 400 176 304
WIRE 224 400 224 368
WIRE 224 400 176 400
WIRE 288 400 288 -64
WIRE 288 400 224 400
WIRE 336 432 336 384
WIRE -368 480 -368 384
WIRE -528 496 -528 352
WIRE -464 496 -464 464
WIRE -464 496 -528 496
WIRE -464 528 -464 496
WIRE -736 608 -736 304
WIRE -368 608 -368 544
WIRE -368 608 -736 608
WIRE 0 608 0 320
WIRE 0 608 -368 608
FLAG -608 160 0
FLAG -912 16 V_in
IOPIN -912 16 In
FLAG -464 528 0
FLAG -128 368 V_out
IOPIN -128 368 Out
FLAG -368 288 0
FLAG 336 432 0
FLAG -400 96 V_ref
IOPIN -400 96 Out
FLAG 256 -224 V_ref
IOPIN 256 -224 In
FLAG -1232 336 0
FLAG -1232 176 +5V
IOPIN -1232 176 Out
FLAG 112 -192 0
FLAG 112 -304 +5V
IOPIN 112 -304 In
FLAG 96 352 +5V
IOPIN 96 352 In
FLAG 416 -256 +5V
IOPIN 416 -256 In
FLAG 96 256 0
FLAG 560 -400 0
FLAG -224 -160 0
FLAG 128 96 0
FLAG -1120 336 0
FLAG -1120 176 V_in
IOPIN -1120 176 Out
FLAG -320 224 0
SYMBOL Opamps\\LT1495 96 384 R180
SYMATTR InstName U4
SYMBOL Comparators\\LTC1440 -288 -32 R0
SYMATTR InstName U1
SYMBOL res -640 0 R90
WINDOW 0 0 56 VBottom 2
WINDOW 3 32 56 VTop 2
SYMATTR InstName R1
SYMATTR Value 100k
SYMBOL res -784 0 R90
WINDOW 0 0 56 VBottom 2
WINDOW 3 32 56 VTop 2
SYMATTR InstName R2
SYMATTR Value 562k
SYMBOL cap -624 48 R0
SYMATTR InstName C1
SYMATTR Value 8.2n
SYMBOL schottky -480 144 R0
SYMATTR InstName D1
SYMBOL schottky -480 400 R0
SYMATTR InstName D2
SYMBOL res -608 288 R90
WINDOW 0 0 56 VBottom 2
WINDOW 3 32 56 VTop 2
SYMATTR InstName R3
SYMATTR Value 15k
SYMBOL npn -592 256 R0
SYMATTR InstName Q1
SYMBOL cap -256 288 R90
WINDOW 0 0 32 VBottom 2
WINDOW 3 32 32 VTop 2
SYMATTR InstName C2
SYMATTR Value 100p
SYMBOL cap -176 224 R90
WINDOW 0 0 32 VBottom 2
WINDOW 3 32 32 VTop 2
SYMATTR InstName C3
SYMATTR Value 12p
SYMBOL schottky -352 272 R180
WINDOW 0 24 64 Left 2
WINDOW 3 24 0 Left 2
SYMATTR InstName D3
SYMBOL diode -352 544 R180
WINDOW 0 24 64 Left 2
WINDOW 3 24 0 Left 2
SYMATTR InstName D4
SYMBOL res 240 272 R180
WINDOW 0 36 76 Left 2
WINDOW 3 36 40 Left 2
SYMATTR InstName R4
SYMATTR Value 10Meg
SYMBOL diode 208 304 R0
SYMATTR InstName D5
SYMBOL cap 320 320 R0
SYMATTR InstName C4
SYMATTR Value 50n
SYMBOL Opamps\\LT1495 112 -336 M0
SYMATTR InstName U2
SYMBOL res 384 -272 R90
WINDOW 0 0 56 VBottom 2
WINDOW 3 32 56 VTop 2
SYMATTR InstName R5
SYMATTR Value 20Meg
SYMBOL res 256 -272 R90
WINDOW 0 0 56 VBottom 2
WINDOW 3 32 56 VTop 2
SYMATTR InstName R6
SYMATTR Value 3.9Meg
SYMBOL voltage -1232 208 R0
WINDOW 123 0 0 Left 2
WINDOW 39 0 0 Left 2
SYMATTR InstName V1
SYMATTR Value 5
SYMBOL schottky -16 -432 R270
WINDOW 0 32 32 VTop 2
WINDOW 3 0 32 VBottom 2
SYMATTR InstName D6
SYMBOL schottky 144 -432 R270
WINDOW 0 32 32 VTop 2
WINDOW 3 0 32 VBottom 2
SYMATTR InstName D7
SYMBOL res 368 -464 R90
WINDOW 0 0 56 VBottom 2
WINDOW 3 32 56 VTop 2
SYMATTR InstName R7
SYMATTR Value 10Meg
SYMBOL res 512 -464 R90
WINDOW 0 0 56 VBottom 2
WINDOW 3 32 56 VTop 2
SYMATTR InstName R8
SYMATTR Value 3.9Meg
SYMBOL res 240 -576 R90
WINDOW 0 0 56 VBottom 2
WINDOW 3 32 56 VTop 2
SYMATTR InstName R9
SYMATTR Value 270k
SYMBOL res -80 -288 R90
WINDOW 0 0 56 VBottom 2
WINDOW 3 32 56 VTop 2
SYMATTR InstName R10
SYMATTR Value 390
SYMBOL cap -240 -240 R0
SYMATTR InstName C5
SYMATTR Value 1µ
SYMBOL res 112 -32 R0
SYMATTR InstName R11
SYMATTR Value 39k
SYMBOL res 64 -80 R90
WINDOW 0 0 56 VBottom 2
WINDOW 3 32 56 VTop 2
SYMATTR InstName R12
SYMATTR Value 360k
SYMBOL res 256 -80 R90
WINDOW 0 0 56 VBottom 2
WINDOW 3 32 56 VTop 2
SYMATTR InstName R13
SYMATTR Value 3.6Meg
SYMBOL voltage -1120 208 R0
WINDOW 123 0 0 Left 2
WINDOW 39 0 0 Left 2
SYMATTR InstName V2
SYMATTR Value 1.25
TEXT -1304 616 Left 2 !.tran 0.2 startup
